$$$$



 69 72  0  0  1  0  0  0  0  0999 V2000
    5.7287   -4.6408    0.0000 C   0  0  0  0  0  0  0  0  0  0  0  0
    5.7287   -5.9667    0.0000 O   0  0  0  0  0  0  0  0  0  0  0  0
    4.5898   -3.9778    0.0000 C   0  0  1  0  0  0  0  0  0  0  0  0
    4.5898   -6.6127    0.0000 O   0  0  0  0  0  0  0  0  0  0  0  0
    3.4508   -4.6408    0.0000 N   0  0  0  0  0  0  0  0  0  0  0  0
    3.4508   -5.9667    0.0000 C   0  0  0  0  0  0  0  0  0  0  0  0
    6.8847   -3.9778    0.0000 O   0  0  0  0  0  0  0  0  0  0  0  0
    8.0066   -4.6408    0.0000 C   0  0  1  0  0  0  0  0  0  0  0  0
    8.0066   -5.9667    0.0000 C   0  0  0  0  0  0  0  0  0  0  0  0
    9.1626   -3.9778    0.0000 C   0  0  2  0  0  0  0  0  0  0  0  0
   10.3015   -4.6408    0.0000 C   0  0  0  0  0  0  0  0  0  0  0  0
    9.1626   -6.6127    0.0000 C   0  0  0  0  0  0  0  0  0  0  0  0
    4.5898   -2.6519    0.0000 C   0  0  0  0  0  0  0  0  0  0  0  0
    3.4508   -1.9889    0.0000 C   0  0  0  0  0  0  0  0  0  0  0  0
    2.2949   -3.9778    0.0000 C   0  0  0  0  0  0  0  0  0  0  0  0
    2.2949   -2.6519    0.0000 C   0  0  0  0  0  0  0  0  0  0  0  0
    9.1626   -2.6519    0.0000 C   0  0  0  0  0  0  0  0  0  0  0  0
   10.3015   -1.9889    0.0000 C   0  0  1  0  0  0  0  0  0  0  0  0
   11.4575   -2.6519    0.0000 C   0  0  0  0  0  0  0  0  0  0  0  0
   10.3015   -0.6630    0.0000 C   0  0  0  0  0  0  0  0  0  0  0  0
   11.4575    0.0000    0.0000 C   0  0  0  0  0  0  0  0  0  0  0  0
   12.5964   -1.9889    0.0000 C   0  0  2  0  0  0  0  0  0  0  0  0
   12.5964   -0.6630    0.0000 C   0  0  2  0  0  0  0  0  0  0  0  0
    3.4508   -8.5846    0.0000 O   0  0  0  0  0  0  0  0  0  0  0  0
    2.2949   -6.6127    0.0000 C   0  0  0  0  0  0  0  0  0  0  0  0
    2.2949   -7.9386    0.0000 C   0  0  1  0  0  0  0  0  0  0  0  0
    9.1626   -7.9386    0.0000 C   0  0  2  0  0  0  0  0  0  0  0  0
    8.0066   -8.5846    0.0000 C   0  0  0  0  0  0  0  0  0  0  0  0
    3.4338   -9.9105    0.0000 C   0  0  1  0  0  0  0  0  0  0  0  0
    2.2949  -10.5905    0.0000 C   0  0  0  0  0  0  0  0  0  0  0  0
    1.1559   -8.5846    0.0000 C   0  0  1  0  0  0  0  0  0  0  0  0
    1.1559   -9.9105    0.0000 C   0  0  0  0  0  0  0  0  0  0  0  0
    4.5898  -10.5905    0.0000 C   0  0  0  0  0  0  0  0  0  0  0  0
   10.3015   -8.5846    0.0000 C   0  0  0  0  0  0  0  0  0  0  0  0
   10.3015   -9.9105    0.0000 C   0  0  0  0  0  0  0  0  0  0  0  0
    9.1626  -10.5905    0.0000 C   0  0  0  0  0  0  0  0  0  0  0  0
    4.5898  -11.9165    0.0000 C   0  0  1  0  0  0  0  0  0  0  0  0
    6.8847  -11.9165    0.0000 C   0  0  0  0  0  0  0  0  0  0  0  0
    5.7457  -12.5794    0.0000 C   0  0  0  0  0  0  0  0  0  0  0  0
   11.4575  -10.5905    0.0000 C   0  0  2  0  0  0  0  0  0  0  0  0
   11.4575  -11.9165    0.0000 C   0  0  1  0  0  0  0  0  0  0  0  0
   10.3015  -12.5624    0.0000 O   0  0  0  0  0  0  0  0  0  0  0  0
    5.7457  -13.8884    0.0000 C   0  0  0  0  0  0  0  0  0  0  0  0
    6.8847  -14.5513    0.0000 C   0  0  0  0  0  0  0  0  0  0  0  0
   10.3015  -13.8884    0.0000 C   0  0  0  0  0  0  0  0  0  0  0  0
   12.5964  -12.5624    0.0000 C   0  0  0  0  0  0  0  0  0  0  0  0
   12.5964  -13.8884    0.0000 C   0  0  1  0  0  0  0  0  0  0  0  0
   11.4575  -14.5513    0.0000 C   0  0  0  0  0  0  0  0  0  0  0  0
    9.1626  -15.8773    0.0000 C   0  0  0  0  0  0  0  0  0  0  0  0
    8.0066  -16.5402    0.0000 C   0  0  0  0  0  0  0  0  0  0  0  0
    6.8847  -15.8773    0.0000 C   0  0  0  0  0  0  0  0  0  0  0  0
   10.8285  -15.8773    0.0000 C   0  0  1  0  0  0  0  0  0  0  0  0
   13.7524  -11.9165    0.0000 O   0  0  0  0  0  0  0  0  0  0  0  0
   12.5964   -9.9105    0.0000 O   0  0  0  0  0  0  0  0  0  0  0  0
   13.7524  -14.5513    0.0000 C   0  0  0  0  0  0  0  0  0  0  0  0
   11.5425  -16.9992    0.0000 C   0  0  0  0  0  0  0  0  0  0  0  0
    3.4508  -12.5794    0.0000 O   0  0  0  0  0  0  0  0  0  0  0  0
    3.4508  -13.9054    0.0000 C   0  0  0  0  0  0  0  0  0  0  0  0
   10.3015   -5.9667    0.0000 O   0  0  0  0  0  0  0  0  0  0  0  0
    1.1559   -7.2757    0.0000 O   0  0  0  0  0  0  0  0  0  0  0  0
    1.1559   -5.9497    0.0000 O   0  0  0  0  0  0  0  0  0  0  0  0
   13.7524   -2.6519    0.0000 O   0  0  0  0  0  0  0  0  0  0  0  0
   13.7524   -0.0170    0.0000 O   0  0  0  0  0  0  0  0  0  0  0  0
    0.0000   -7.9386    0.0000 C   0  0  0  0  0  0  0  0  0  0  0  0
   13.7524   -3.9778    0.0000 C   0  0  0  0  0  0  0  0  0  0  0  0
    9.0266   -1.6659    0.0000 H   0  0  0  0  0  0  0  0  0  0  0  0
    8.0066   -3.3148    0.0000 H   0  0  0  0  0  0  0  0  0  0  0  0
    3.4338  -11.2365    0.0000 H   0  0  0  0  0  0  0  0  0  0  0  0
    4.5898   -5.2868    0.0000 H   0  0  0  0  0  0  0  0  0  0  0  0
  1  3  1  0  0  0  0
  1  7  1  0  0  0  0
  1  2  2  0  0  0  0
  3 13  1  0  0  0  0
  3  5  1  0  0  0  0
  3 69  1  6  0  0  0
  4  6  2  0  0  0  0
  5  6  1  0  0  0  0
  5 15  1  0  0  0  0
  6 25  1  0  0  0  0
  7  8  1  0  0  0  0
  8 10  1  0  0  0  0
  8  9  1  0  0  0  0
  8 67  1  1  0  0  0
  9 12  1  0  0  0  0
 10 17  1  0  0  0  0
 10 11  1  1  0  0  0
 12 27  1  0  0  0  0
 12 59  2  0  0  0  0
 13 14  1  0  0  0  0
 14 16  1  0  0  0  0
 15 16  1  0  0  0  0
 17 18  1  0  0  0  0
 18 20  1  0  0  0  0
 18 19  1  0  0  0  0
 18 66  1  1  0  0  0
 19 22  1  0  0  0  0
 20 21  1  0  0  0  0
 21 23  1  0  0  0  0
 22 23  1  0  0  0  0
 22 62  1  6  0  0  0
 23 63  1  1  0  0  0
 24 26  1  0  0  0  0
 24 29  1  0  0  0  0
 25 26  1  0  0  0  0
 25 61  2  0  0  0  0
 26 31  1  0  0  0  0
 26 60  1  1  0  0  0
 27 34  1  0  0  0  0
 27 28  1  1  0  0  0
 29 30  1  0  0  0  0
 29 33  1  0  0  0  0
 29 68  1  1  0  0  0
 30 32  1  0  0  0  0
 31 32  1  0  0  0  0
 31 64  1  1  0  0  0
 33 37  1  0  0  0  0
 34 35  2  0  0  0  0
 35 40  1  0  0  0  0
 35 36  1  0  0  0  0
 37 39  1  0  0  0  0
 37 57  1  1  0  0  0
 38 39  1  0  0  0  0
 39 43  2  0  0  0  0
 40 41  1  0  0  0  0
 40 54  1  1  0  0  0
 41 46  1  0  0  0  0
 41 42  1  6  0  0  0
 42 45  1  0  0  0  0
 43 44  1  0  0  0  0
 44 51  2  0  0  0  0
 46 47  1  0  0  0  0
 46 53  2  0  0  0  0
 47 48  1  0  0  0  0
 47 55  1  6  0  0  0
 48 52  1  0  0  0  0
 49 50  2  0  0  0  0
 49 52  1  0  0  0  0
 50 51  1  0  0  0  0
 52 56  1  6  0  0  0
 57 58  1  0  0  0  0
 62 65  1  0  0  0  0
M  END
>  <DSSTox_RID>
42971

>  <DSSTox_CID>
3582

>  <DSSTox_Generic_SID>
23582

>  <DSSTox_FileID>
4_ARYEXP_Aux_v2a

>  <STRUCTURE_Formula>
C51H79NO13

>  <STRUCTURE_MolecularWeight>
914.1719

>  <STRUCTURE_ChemicalType>
defined organic

>  <STRUCTURE_TestedForm_DefinedOrganic>
parent

>  <STRUCTURE_Shown>
tested chemical

>  <TestSubstance_ChemicalName>
Sirolimus

>  <Source_ChemicalName>
Rapamycin

>  <TestSubstance_CASRN>
53123-88-9

>  <TestSubstance_Description>
single chemical compound

>  <ChemicalNote>
stereochem; tautomers

>  <STRUCTURE_ChemicalName_IUPAC>
(3S,6R,7E,9R,10R,12R,14S,15E,17E,19E,21S,23S,26R,27R,34aS)-9,27-dihydroxy-3-{(1R)-2-[(1S,3R,4R)-4-hydroxy-3-(methyloxy)cyclohexyl]-1-methylethyl}-6,8,12,14,20,26-hexamethyl-10,21-bis(methyloxy)-9,10,12,13,14,21,22,23,24,25,26,27,32,33,34,34a-hexadecahydro-3H-23,27-epoxypyrido[2,1-c][1,4]oxazacyclohentriacontine-1,5,11,28,29(6H,31H)-pentone

>  <STRUCTURE_SMILES>
C3([C@@H]1CCCCN1C(=O)C([C@@]2(O[C@@H](CC[C@H]2C)C[C@@H](/C(C)=C/C=C/C=C/[C@H](C[C@H](C([C@@H]([C@@H](/C(=C/[C@H](C(C[C@H](O3)[C@@H](C[C@@H]4CC[C@H]([C@@H](C4)OC)O)C)=O)C)C)O)OC)=O)C)C)OC)O)=O)=O

>  <STRUCTURE_Parent_SMILES>
C3([C@@H]1CCCCN1C(=O)C([C@@]2(O[C@@H](CC[C@H]2C)C[C@@H](/C(C)=C/C=C/C=C/[C@H](C[C@H](C([C@@H]([C@@H](/C(=C/[C@H](C(C[C@H](O3)[C@@H](C[C@@H]4CC[C@H]([C@@H](C4)OC)O)C)=O)C)C)O)OC)=O)C)C)OC)O)=O)=O

>  <STRUCTURE_InChI>
InChI=1S/C51H79NO13/c1-30-16-12-11-13-17-31(2)42(61-8)28-38-21-19-36(7)51(60,65-38)48(57)49(58)52-23-15-14-18-39(52)50(59)64-43(33(4)26-37-20-22-40(53)44(27-37)62-9)29-41(54)32(3)25-35(6)46(56)47(63-10)45(55)34(5)24-30/h11-13,16-17,25,30,32-34,36-40,42-44,46-47,53,56,60H,14-15,18-24,26-29H2,1-10H3/b13-11+,16-12+,31-17+,35-25+/t30-,32-,33-,34-,36-,37+,38+,39+,40-,42+,43+,44-,46-,47+,51-/m1/s1

>  <STRUCTURE_InChIKey>
QFJCIRLUMZQUOT-HPLJOQBZSA-N

>  <Substance_modify_yyyymmdd>
20080429

>  <StudyType>
microarray

>  <Chemical_StudyType>
Treatment

>  <Experiment_Accession>
E-MANP-2

>  <Experiment_URL>
http://www.ebi.ac.uk/arrayexpress/experiments/E-MANP-2

>  <Experiment_IdNumber>
3256053

>  <Experiment_Title>
Transcription profiling of yeast treated with rapamycin"

>  <Experiment_Description>
A diploid yeast strain was grown at 30C in YPD medium. At an OD of 0.6 (600nm) rapamycin was added to a final concentration of 0.20 ug/ml and the incubation continued for 90 min. A control culture was treated with an equal amount of DMSO vehicle. Cells were harvested at an OD of 0.9 rapamycin and 1.1 control., (Generated description) Experiment with 4 hybridizations, using 2 samples of species [Saccharomyces cerevisiae], using 4 arrays of array design [EMBLyeast12Kver1.1], producing 0 raw data files and 9 transformed and/or normalized data files.

>  <Experiment_PublicationDate>




>  <Species>
Saccharomyces cerevisiae

>  <Number_Samples>
2

>  <Experiment_ArrayAccession>
A-MANP-2,A-MANP-2

>  <Experiment_ArrayType>
EMBLyeast12Kver1.1

>  <Experiment_ArrayTitle>
EMBLyeast12Kver1.1,EMBLyeast12Kver1.1

>  <Experiment_DesignFile_PNG>
download/mageml/E-MANP-2.biosamples.png

>  <Experiment_DesignFile_SVG>
download/mageml/E-MANP-2.biosamples.svg

>  <Number_CelFiles_Affymetrix>




>  <Link_ProcessedData>
download/mageml/E-MANP-2.processed.zip

>  <Number_ProcessedDataFiles>
9

>  <Number_Hybridizations>
4

>  <Link_RawData>




>  <Number_RawDataFiles>




>  <Link_SampleDataRelationshipFile>
download/mageml/E-MANP-2.sdrf.txt

>  <Link_TwoColumnData>
download/mageml/E-MANP-2.2columns.txt

>  <Experiment_SampleAttributes>
Organism:Saccharomyces cerevisiae, StrainOrLine:FY1679

>  <Experiment_Factors>
compound" FV_MEASUREMENT="0.002, scanner type" FV_MEASUREMENT="scanner type

>  <MIAME_Total>
1

>  <MIAME_ArrayDesign_Score>
0

>  <MIAME_Factors_Score>
0

>  <MIAME_RawData_Score>
0

>  <MIAME_Protocol_Score>
0

>  <MIAME_ProcessedData_Score>
1

>  <Experiment_ArrayCount>
4,4

>  <Experiment_ArrayId>
3228858;3228858

>  <Experiment_BioassayAccessionCode>
MANP

>  <Experiment_BioassayCount>
9

>  <Experiment_BioassayDataFormat>
tab delimited

>  <Experiment_BioassayId>
1341872857

>  <Number_BioassayDerived>
1

>  <Experiment_BioassayTitle>
DED:1

>  <Number_BadCubes>
9

>  <Experiment_Submitter>
contact=Christian Schwager email=schwager@embl-heidelberg.de role=investigator, contact=W Ansorge role=investigator, contact=A Richter role=investigator, contact=Thomas Preiss role=submitter, contact=M Hentze role=investigator

>  <Experiment_DesignType>
unknown experiment type

>  <Experiment_DescriptionId>
3256054, 1341873179

$$$$



  4  3  0  0  0  0  0  0  0  0999 V2000
    1.9950    0.0000    0.0000 C   0  0  0  0  0  0  0  0  0  0  0  0
    1.3292   -1.1518    0.0000 S   0  0  0  0  0  0  0  0  0  0  0  0
    1.9950   -2.3037    0.0000 O   0  0  0  0  0  0  0  0  0  0  0  0
    0.0000   -1.1518    0.0000 C   0  0  0  0  0  0  0  0  0  0  0  0
  1  2  1  0  0  0  0
  2  3  2  0  0  0  0
  2  4  1  0  0  0  0
M  END
>  <DSSTox_RID>
42972

>  <DSSTox_CID>
1735

>  <DSSTox_Generic_SID>
21735

>  <DSSTox_FileID>
5_ARYEXP_Aux_v2a

>  <STRUCTURE_Formula>
C2H6OS

>  <STRUCTURE_MolecularWeight>
78.1334

>  <STRUCTURE_ChemicalType>
defined organic

>  <STRUCTURE_TestedForm_DefinedOrganic>
parent

>  <STRUCTURE_Shown>
tested chemical

>  <TestSubstance_ChemicalName>
Dimethyl sulfoxide

>  <Source_ChemicalName>
Dimethyl sulfoxide (DMSO)

>  <TestSubstance_CASRN>
67-68-5

>  <TestSubstance_Description>
single chemical compound

>  <STRUCTURE_ChemicalName_IUPAC>
dimethyl sulfoxide

>  <STRUCTURE_SMILES>
CS(=O)C

>  <STRUCTURE_Parent_SMILES>
CS(=O)C

>  <STRUCTURE_InChI>
InChI=1S/C2H6OS/c1-4(2)3/h1-2H3

>  <STRUCTURE_InChIKey>
IAZDPXIOMUYVGZ-UHFFFAOYSA-N

>  <Substance_modify_yyyymmdd>
20080429

>  <StudyType>
microarray

>  <Chemical_StudyType>
Vehicle

>  <Experiment_Accession>
E-MANP-2

>  <Experiment_URL>
http://www.ebi.ac.uk/arrayexpress/experiments/E-MANP-2

>  <Experiment_IdNumber>
3256053

>  <Experiment_Title>
Transcription profiling of yeast treated with rapamycin"

>  <Experiment_Description>
A diploid yeast strain was grown at 30C in YPD medium. At an OD of 0.6 (600nm) rapamycin was added to a final concentration of 0.20 ug/ml and the incubation continued for 90 min. A control culture was treated with an equal amount of DMSO vehicle. Cells were harvested at an OD of 0.9 rapamycin and 1.1 control., (Generated description) Experiment with 4 hybridizations, using 2 samples of species [Saccharomyces cerevisiae], using 4 arrays of array design [EMBLyeast12Kver1.1], producing 0 raw data files and 9 transformed and/or normalized data files.

>  <Experiment_PublicationDate>




>  <Species>
Saccharomyces cerevisiae

>  <Number_Samples>
2

>  <Experiment_ArrayAccession>
A-MANP-2,A-MANP-2

>  <Experiment_ArrayType>
EMBLyeast12Kver1.1

>  <Experiment_ArrayTitle>
EMBLyeast12Kver1.1,EMBLyeast12Kver1.1

>  <Experiment_DesignFile_PNG>
download/mageml/E-MANP-2.biosamples.png

>  <Experiment_DesignFile_SVG>
download/mageml/E-MANP-2.biosamples.svg

>  <Number_CelFiles_Affymetrix>




>  <Link_ProcessedData>
download/mageml/E-MANP-2.processed.zip

>  <Number_ProcessedDataFiles>
9

>  <Number_Hybridizations>
4

>  <Link_RawData>




>  <Number_RawDataFiles>




>  <Link_SampleDataRelationshipFile>
download/mageml/E-MANP-2.sdrf.txt

>  <Link_TwoColumnData>
download/mageml/E-MANP-2.2columns.txt

>  <Experiment_SampleAttributes>
Organism:Saccharomyces cerevisiae, StrainOrLine:FY1679

>  <Experiment_Factors>
compound" FV_MEASUREMENT="0.002, scanner type" FV_MEASUREMENT="scanner type

>  <MIAME_Total>
1

>  <MIAME_ArrayDesign_Score>
0

>  <MIAME_Factors_Score>
0

>  <MIAME_RawData_Score>
0

>  <MIAME_Protocol_Score>
0

>  <MIAME_ProcessedData_Score>
1

>  <Experiment_ArrayCount>
4,4

>  <Experiment_ArrayId>
3228858;3228858

>  <Experiment_BioassayAccessionCode>
MANP

>  <Experiment_BioassayCount>
9

>  <Experiment_BioassayDataFormat>
tab delimited

>  <Experiment_BioassayId>
1341872857

>  <Number_BioassayDerived>
1

>  <Experiment_BioassayTitle>
DED:1

>  <Number_BadCubes>
9

>  <Experiment_Submitter>
contact=Christian Schwager email=schwager@embl-heidelberg.de role=investigator, contact=W Ansorge role=investigator, contact=A Richter role=investigator, contact=Thomas Preiss role=submitter, contact=M Hentze role=investigator

>  <Experiment_DesignType>
unknown experiment type

>  <Experiment_DescriptionId>
3256054, 1341873179

$$$$



 17 19  0  0  0  0  0  0  0  0999 V2000
    5.7640   -1.7698    0.0000 C   0  0  0  0  0  0  0  0  0  0  0  0
    7.0213   -1.3540    0.0000 C   0  0  0  0  0  0  0  0  0  0  0  0
    7.8046   -2.4275    0.0000 C   0  0  0  0  0  0  0  0  0  0  0  0
    9.1296   -2.2921    0.0000 C   0  0  0  0  0  0  0  0  0  0  0  0
    9.6712   -1.0735    0.0000 C   0  0  0  0  0  0  0  0  0  0  0  0
    8.8878    0.0000    0.0000 C   0  0  0  0  0  0  0  0  0  0  0  0
    7.5629   -0.1451    0.0000 C   0  0  0  0  0  0  0  0  0  0  0  0
    7.0213   -3.5106    0.0000 C   0  0  0  0  0  0  0  0  0  0  0  0
    5.7640   -3.0948    0.0000 C   0  0  0  0  0  0  0  0  0  0  0  0
    4.6035   -3.7621    0.0000 C   0  0  0  0  0  0  0  0  0  0  0  0
    3.4526   -3.0948    0.0000 C   0  0  0  0  0  0  0  0  0  0  0  0
    3.4526   -1.7698    0.0000 C   0  0  0  0  0  0  0  0  0  0  0  0
    4.6035   -1.1025    0.0000 C   0  0  0  0  0  0  0  0  0  0  0  0
    2.3017   -3.7621    0.0000 N   0  0  0  0  0  0  0  0  0  0  0  0
    1.1509   -3.0948    0.0000 C   0  0  0  0  0  0  0  0  0  0  0  0
    0.0000   -3.7621    0.0000 C   0  0  0  0  0  0  0  0  0  0  0  0
    1.1509   -1.7698    0.0000 O   0  0  0  0  0  0  0  0  0  0  0  0
  1  2  1  0  0  0  0
  1  9  1  0  0  0  0
  1 13  2  0  0  0  0
  2  3  2  0  0  0  0
  2  7  1  0  0  0  0
  3  4  1  0  0  0  0
  3  8  1  0  0  0  0
  4  5  2  0  0  0  0
  5  6  1  0  0  0  0
  6  7  2  0  0  0  0
  8  9  1  0  0  0  0
  9 10  2  0  0  0  0
 10 11  1  0  0  0  0
 11 12  2  0  0  0  0
 11 14  1  0  0  0  0
 12 13  1  0  0  0  0
 14 15  1  0  0  0  0
 15 16  1  0  0  0  0
 15 17  2  0  0  0  0
M  END
>  <DSSTox_RID>
42974

>  <DSSTox_CID>
18

>  <DSSTox_Generic_SID>
39227

>  <DSSTox_FileID>
7_ARYEXP_Aux_v2a

>  <STRUCTURE_Formula>
C15H13NO

>  <STRUCTURE_MolecularWeight>
223.2698

>  <STRUCTURE_ChemicalType>
defined organic

>  <STRUCTURE_TestedForm_DefinedOrganic>
parent

>  <STRUCTURE_Shown>
tested chemical

>  <TestSubstance_ChemicalName>
2-Acetylaminofluorene

>  <Source_ChemicalName>
2-Acetylaminofluorene (2-AAF)

>  <TestSubstance_CASRN>
53-96-3

>  <TestSubstance_Description>
single chemical compound

>  <STRUCTURE_ChemicalName_IUPAC>
N-9H-fluoren-2-ylacetamide

>  <STRUCTURE_SMILES>
C12C3=C(C=CC=C3)CC1=CC(=CC=2)NC(C)=O

>  <STRUCTURE_Parent_SMILES>
C12C3=C(C=CC=C3)CC1=CC(=CC=2)NC(C)=O

>  <STRUCTURE_InChI>
InChI=1S/C15H13NO/c1-10(17)16-13-6-7-15-12(9-13)8-11-4-2-3-5-14(11)15/h2-7,9H,8H2,1H3,(H,16,17)

>  <STRUCTURE_InChIKey>
CZIHNRWJTSTCEX-UHFFFAOYSA-N

>  <Substance_modify_yyyymmdd>
20080429

>  <StudyType>
microarray

>  <Chemical_StudyType>
Treatment

>  <Experiment_Accession>
E-MEXP-89

>  <Experiment_URL>
http://www.ebi.ac.uk/arrayexpress/experiments/E-MEXP-89

>  <Experiment_IdNumber>
293613099

>  <Experiment_Title>
Transcription profiling identification of rodent hepatic carcinogenesis"

>  <Experiment_Description>
3 dose levels of each of 9 compounds were used to dose male SD rats q.d. by oral gavage.  Compounds included 5 nongenotoxic carcinogens (bemitradine, clofibrate, doxylamine, methapyrilene, &amp; phenobarbital), 2 genotoxic agents (tamoxifen and 2-AAF) and 2 non-carcinogens (4-AAF and isoniazid).  This work has been described in Kramer JA, Curtiss SW, Kolaja KL, Alden CA, Blomme EAG, Curtiss WC, Davila JC, Jackson CJ, and Bunch RT. (2004)  Acute Molecular Markers of Rodent Hepatic Carcinogenesis Identified by Transcription Profiling.  Chem. Res. Toxicol., in press. , (Generated description) Experiment with 105 hybridizations, using 80 samples of species [Rattus norvegicus], using 105 arrays of array design [Incyte RatGEM 1.01], producing 105 raw data files and 0 transformed and/or normalized data files.

>  <Experiment_PubMed_Information>
accession=15089088 authors=Kramer JA, Curtiss SW, Kolaja KL, Alden CA, Blomme EAG, Curtiss WC, Davila JC, Jackson CJ, and Bunch RT issue=4 pages=463-70 publication=Chem Res Toxicol title=Acute molecular markers of rodent hepatic carcinogenesis identified by transcription profiling volume=17 year=2004

>  <Experiment_PublicationDate>
38043

>  <Species>
Rattus norvegicus

>  <Number_Samples>
80

>  <Experiment_ArrayAccession>
A-MEXP-22,A-MEXP-22

>  <Experiment_ArrayType>
Incyte RatGEM 1.01

>  <Experiment_ArrayTitle>
Incyte RatGEM 1.01,Incyte RatGEM 1.01

>  <Experiment_DesignFile_PNG>
download/mageml/E-MEXP-89.biosamples.png

>  <Experiment_DesignFile_SVG>
download/mageml/E-MEXP-89.biosamples.svg

>  <Number_CelFiles_Affymetrix>
0

>  <Link_ProcessedData>




>  <Number_ProcessedDataFiles>




>  <Number_Hybridizations>
105

>  <Link_RawData>
download/mageml/E-MEXP-89.raw.zip"

>  <Number_RawDataFiles>
105

>  <Link_SampleDataRelationshipFile>
download/mageml/E-MEXP-89.sdrf.txt

>  <Link_TwoColumnData>
download/mageml/E-MEXP-89.2columns.txt

>  <Experiment_SampleAttributes>
Age:6 To 7, BioSourceType:frozen_sample, DevelopmentalStage:adult, Individual:1102, Individual:1401, Individual:1403, Individual:1502, Individual:1601, Individual:1603, Individual:1903, Individual:1902, Individual:1901, Individual:1803, Individual:1802, Individual:1801, Individual:1703, Individual:1702, Individual:1701, Individual:5203, Individual:5202, Individual:5201, Individual:5103, Individual:5102, Individual:5101, Individual:4AAFMidPool, Individual:4AAFLowPool, Individual:4AAFHighPool, Individual:7002, Individual:7001, Individual:5903, Individual:5902, Individual:5901, Individual:5603, Individual:5602, Individual:5601, Individual:5503, Individual:CtrlPool, Individual:CloMidPool, Individual:CloLowPool, Individual:CloHighPool, Individual:BemMidPool, Individual:BemLowPool, Individual:BemHighPool, Individual:7503, Individual:7502, TimeUnit:weeks, Sex:male, OrganismPart:liver, Organism:Rattus norvegicus, Individual:TamLowPool, Individual:TamHighPool, Individual:PBMidPool, Individual:PBLowPool, Individual:PBHighPool, Individual:MPMidPool, Individual:MPLowPool, Individual:DoxHighPool, Individual:7501, Individual:7203, Individual:7202, Individual:7201, Individual:7103, Individual:7102, Individual:7101, Individual:7003, Individual:5502, Individual:5501, Individual:5403, Individual:5402, Individual:5401, Individual:5303, Individual:5302, Individual:5301, Individual:3303, Individual:3302, Individual:3301, Individual:3002, Individual:3001, Individual:2AAFMidPool, Individual:2AAFLowPool, Individual:2AAFHighPool, Individual:1602, Individual:1503, Individual:1501, Individual:1402, Individual:1103, Individual:1101

>  <Experiment_Factors>
compound, dose

>  <MIAME_Total>
1

>  <MIAME_ArrayDesign_Score>
0

>  <MIAME_Factors_Score>
0

>  <MIAME_RawData_Score>
1

>  <MIAME_Protocol_Score>
0

>  <MIAME_ProcessedData_Score>
0

>  <Experiment_ArrayCount>
105105

>  <Experiment_ArrayId>
124516633;124516633

>  <Experiment_BioassayAccessionCode>
MEXP

>  <Experiment_BioassayCount>
105

>  <Experiment_BioassayDataFormat>
tab delimited

>  <Experiment_BioassayId>
1341944760

>  <Number_BioassayDerived>
0

>  <Experiment_BioassayTitle>
DED:MEXP:464

>  <Number_BadCubes>
105

>  <Experiment_Submitter>
contact=Jeffrey Kramer email=jeffrey.a.kramer@pharmacia.com role=submitter

>  <Experiment_DesignType>
dose response, compound treatment

>  <Experiment_DescriptionId>
293613100, 1341958216

$$$$



 17 19  0  0  0  0  0  0  0  0999 V2000
    2.3012   -3.9858    0.0000 C   0  0  0  0  0  0  0  0  0  0  0  0
    3.2905   -4.8819    0.0000 C   0  0  0  0  0  0  0  0  0  0  0  0
    2.7528   -6.0934    0.0000 C   0  0  0  0  0  0  0  0  0  0  0  0
    3.5342   -7.1688    0.0000 C   0  0  0  0  0  0  0  0  0  0  0  0
    4.8533   -7.0326    0.0000 C   0  0  0  0  0  0  0  0  0  0  0  0
    5.3981   -5.8139    0.0000 C   0  0  0  0  0  0  0  0  0  0  0  0
    4.6167   -4.7385    0.0000 C   0  0  0  0  0  0  0  0  0  0  0  0
    1.4266   -5.9572    0.0000 C   0  0  0  0  0  0  0  0  0  0  0  0
    1.1542   -4.6525    0.0000 C   0  0  0  0  0  0  0  0  0  0  0  0
    0.0000   -3.9858    0.0000 C   0  0  0  0  0  0  0  0  0  0  0  0
    0.0000   -2.6596    0.0000 C   0  0  0  0  0  0  0  0  0  0  0  0
    1.1542   -1.9929    0.0000 C   0  0  0  0  0  0  0  0  0  0  0  0
    2.3012   -2.6596    0.0000 C   0  0  0  0  0  0  0  0  0  0  0  0
    3.4553   -1.9929    0.0000 N   0  0  0  0  0  0  0  0  0  0  0  0
    3.4553   -0.6667    0.0000 C   0  0  0  0  0  0  0  0  0  0  0  0
    2.3012    0.0000    0.0000 C   0  0  0  0  0  0  0  0  0  0  0  0
    4.6023    0.0000    0.0000 O   0  0  0  0  0  0  0  0  0  0  0  0
  1  2  1  0  0  0  0
  1  9  1  0  0  0  0
  1 13  2  0  0  0  0
  2  3  2  0  0  0  0
  2  7  1  0  0  0  0
  3  4  1  0  0  0  0
  3  8  1  0  0  0  0
  4  5  2  0  0  0  0
  5  6  1  0  0  0  0
  6  7  2  0  0  0  0
  8  9  1  0  0  0  0
  9 10  2  0  0  0  0
 10 11  1  0  0  0  0
 11 12  2  0  0  0  0
 12 13  1  0  0  0  0
 13 14  1  0  0  0  0
 14 15  1  0  0  0  0
 15 16  1  0  0  0  0
 15 17  2  0  0  0  0
M  END
>  <DSSTox_RID>
42975

>  <DSSTox_CID>
19

>  <DSSTox_Generic_SID>
20019

>  <DSSTox_FileID>
8_ARYEXP_Aux_v2a

>  <STRUCTURE_Formula>
C15H13NO

>  <STRUCTURE_MolecularWeight>
223.2698

>  <STRUCTURE_ChemicalType>
defined organic

>  <STRUCTURE_TestedForm_DefinedOrganic>
parent

>  <STRUCTURE_Shown>
tested chemical

>  <TestSubstance_ChemicalName>
4-Acetylaminofluorene

>  <Source_ChemicalName>
4-Acetylaminofluorene (4-AAF)

>  <TestSubstance_CASRN>
28322-02-3

>  <TestSubstance_Description>
single chemical compound

>  <STRUCTURE_ChemicalName_IUPAC>
N-9H-fluoren-4-ylacetamide

>  <STRUCTURE_SMILES>
C12C3=C(C=CC=C3)CC1=CC=CC=2NC(C)=O

>  <STRUCTURE_Parent_SMILES>
C12C3=C(C=CC=C3)CC1=CC=CC=2NC(C)=O

>  <STRUCTURE_InChI>
InChI=1S/C15H13NO/c1-10(17)16-14-8-4-6-12-9-11-5-2-3-7-13(11)15(12)14/h2-8H,9H2,1H3,(H,16,17)

>  <STRUCTURE_InChIKey>
PHPWISAFHNEMSR-UHFFFAOYSA-N

>  <Substance_modify_yyyymmdd>
20080429

>  <StudyType>
microarray

>  <Chemical_StudyType>
Treatment

>  <Experiment_Accession>
E-MEXP-89

>  <Experiment_URL>
http://www.ebi.ac.uk/arrayexpress/experiments/E-MEXP-89

>  <Experiment_IdNumber>
293613099

>  <Experiment_Title>
Transcription profiling identification of rodent hepatic carcinogenesis"

>  <Experiment_Description>
3 dose levels of each of 9 compounds were used to dose male SD rats q.d. by oral gavage.  Compounds included 5 nongenotoxic carcinogens (bemitradine, clofibrate, doxylamine, methapyrilene, &amp; phenobarbital), 2 genotoxic agents (tamoxifen and 2-AAF) and 2 non-carcinogens (4-AAF and isoniazid).  This work has been described in Kramer JA, Curtiss SW, Kolaja KL, Alden CA, Blomme EAG, Curtiss WC, Davila JC, Jackson CJ, and Bunch RT. (2004)  Acute Molecular Markers of Rodent Hepatic Carcinogenesis Identified by Transcription Profiling.  Chem. Res. Toxicol., in press. , (Generated description) Experiment with 105 hybridizations, using 80 samples of species [Rattus norvegicus], using 105 arrays of array design [Incyte RatGEM 1.01], producing 105 raw data files and 0 transformed and/or normalized data files.

>  <Experiment_PubMed_Information>
accession=15089088 authors=Kramer JA, Curtiss SW, Kolaja KL, Alden CA, Blomme EAG, Curtiss WC, Davila JC, Jackson CJ, and Bunch RT issue=4 pages=463-70 publication=Chem Res Toxicol title=Acute molecular markers of rodent hepatic carcinogenesis identified by transcription profiling volume=17 year=2004

>  <Experiment_PublicationDate>
38043

>  <Species>
Rattus norvegicus

>  <Number_Samples>
80

>  <Experiment_ArrayAccession>
A-MEXP-22,A-MEXP-22

>  <Experiment_ArrayType>
Incyte RatGEM 1.01

>  <Experiment_ArrayTitle>
Incyte RatGEM 1.01,Incyte RatGEM 1.01

>  <Experiment_DesignFile_PNG>
download/mageml/E-MEXP-89.biosamples.png

>  <Experiment_DesignFile_SVG>
download/mageml/E-MEXP-89.biosamples.svg

>  <Number_CelFiles_Affymetrix>
0

>  <Link_ProcessedData>




>  <Number_ProcessedDataFiles>




>  <Number_Hybridizations>
105

>  <Link_RawData>
download/mageml/E-MEXP-89.raw.zip"

>  <Number_RawDataFiles>
105

>  <Link_SampleDataRelationshipFile>
download/mageml/E-MEXP-89.sdrf.txt

>  <Link_TwoColumnData>
download/mageml/E-MEXP-89.2columns.txt

>  <Experiment_SampleAttributes>
Age:6 To 7, BioSourceType:frozen_sample, DevelopmentalStage:adult, Individual:1102, Individual:1401, Individual:1403, Individual:1502, Individual:1601, Individual:1603, Individual:1903, Individual:1902, Individual:1901, Individual:1803, Individual:1802, Individual:1801, Individual:1703, Individual:1702, Individual:1701, Individual:5203, Individual:5202, Individual:5201, Individual:5103, Individual:5102, Individual:5101, Individual:4AAFMidPool, Individual:4AAFLowPool, Individual:4AAFHighPool, Individual:7002, Individual:7001, Individual:5903, Individual:5902, Individual:5901, Individual:5603, Individual:5602, Individual:5601, Individual:5503, Individual:CtrlPool, Individual:CloMidPool, Individual:CloLowPool, Individual:CloHighPool, Individual:BemMidPool, Individual:BemLowPool, Individual:BemHighPool, Individual:7503, Individual:7502, TimeUnit:weeks, Sex:male, OrganismPart:liver, Organism:Rattus norvegicus, Individual:TamLowPool, Individual:TamHighPool, Individual:PBMidPool, Individual:PBLowPool, Individual:PBHighPool, Individual:MPMidPool, Individual:MPLowPool, Individual:DoxHighPool, Individual:7501, Individual:7203, Individual:7202, Individual:7201, Individual:7103, Individual:7102, Individual:7101, Individual:7003, Individual:5502, Individual:5501, Individual:5403, Individual:5402, Individual:5401, Individual:5303, Individual:5302, Individual:5301, Individual:3303, Individual:3302, Individual:3301, Individual:3002, Individual:3001, Individual:2AAFMidPool, Individual:2AAFLowPool, Individual:2AAFHighPool, Individual:1602, Individual:1503, Individual:1501, Individual:1402, Individual:1103, Individual:1101

>  <Experiment_Factors>
compound, dose

>  <MIAME_Total>
1

>  <MIAME_ArrayDesign_Score>
0

>  <MIAME_Factors_Score>
0

>  <MIAME_RawData_Score>
1

>  <MIAME_Protocol_Score>
0

>  <MIAME_ProcessedData_Score>
0

>  <Experiment_ArrayCount>
105105

>  <Experiment_ArrayId>
124516633;124516633

>  <Experiment_BioassayAccessionCode>
MEXP

>  <Experiment_BioassayCount>
105

>  <Experiment_BioassayDataFormat>
tab delimited

>  <Experiment_BioassayId>
1341944760

>  <Number_BioassayDerived>
0

>  <Experiment_BioassayTitle>
DED:MEXP:464

>  <Number_BadCubes>
105

>  <Experiment_Submitter>
contact=Jeffrey Kramer email=jeffrey.a.kramer@pharmacia.com role=submitter

>  <Experiment_DesignType>
dose response, compound treatment

>  <Experiment_DescriptionId>
293613100, 1341958216

$$$$



 21 23  0  0  0  0  0  0  0  0999 V2000
    4.6025   -3.9858    0.0000 C   0  0  0  0  0  0  0  0  0  0  0  0
    3.4427   -3.3230    0.0000 C   0  0  0  0  0  0  0  0  0  0  0  0
    5.7440   -3.3230    0.0000 C   0  0  0  0  0  0  0  0  0  0  0  0
    4.6025   -5.3113    0.0000 C   0  0  0  0  0  0  0  0  0  0  0  0
    2.3013   -3.9858    0.0000 C   0  0  0  0  0  0  0  0  0  0  0  0
    3.4427   -1.9975    0.0000 N   0  0  0  0  0  0  0  0  0  0  0  0
    5.7440   -1.9975    0.0000 N   0  0  0  0  0  0  0  0  0  0  0  0
    7.0143   -3.7373    0.0000 N   0  0  0  0  0  0  0  0  0  0  0  0
    5.7440   -5.9833    0.0000 C   0  0  0  0  0  0  0  0  0  0  0  0
    2.3013   -5.3113    0.0000 C   0  0  0  0  0  0  0  0  0  0  0  0
    1.1414   -3.3230    0.0000 C   0  0  0  0  0  0  0  0  0  0  0  0
    4.6025   -1.3255    0.0000 C   0  0  0  0  0  0  0  0  0  0  0  0
    7.0143   -1.5833    0.0000 N   0  0  0  0  0  0  0  0  0  0  0  0
    7.8059   -2.6511    0.0000 C   0  0  0  0  0  0  0  0  0  0  0  0
    6.9038   -5.3113    0.0000 O   0  0  0  0  0  0  0  0  0  0  0  0
    1.1414   -5.9833    0.0000 C   0  0  0  0  0  0  0  0  0  0  0  0
    0.0000   -3.9858    0.0000 C   0  0  0  0  0  0  0  0  0  0  0  0
    4.6025    0.0000    0.0000 N   0  0  0  0  0  0  0  0  0  0  0  0
    8.0452   -5.9833    0.0000 C   0  0  0  0  0  0  0  0  0  0  0  0
    0.0000   -5.3113    0.0000 C   0  0  0  0  0  0  0  0  0  0  0  0
    9.2051   -5.3113    0.0000 C   0  0  0  0  0  0  0  0  0  0  0  0
  1  2  2  0  0  0  0
  1  3  1  0  0  0  0
  1  4  1  0  0  0  0
  2  5  1  0  0  0  0
  2  6  1  0  0  0  0
  3  7  1  0  0  0  0
  3  8  2  0  0  0  0
  4  9  1  0  0  0  0
  5 10  2  0  0  0  0
  5 11  1  0  0  0  0
  6 12  2  0  0  0  0
  7 13  1  0  0  0  0
  7 12  1  0  0  0  0
  8 14  1  0  0  0  0
  9 15  1  0  0  0  0
 10 16  1  0  0  0  0
 11 17  2  0  0  0  0
 12 18  1  0  0  0  0
 13 14  2  0  0  0  0
 15 19  1  0  0  0  0
 16 20  2  0  0  0  0
 17 20  1  0  0  0  0
 19 21  1  0  0  0  0
M  END
>  <DSSTox_RID>
42976

>  <DSSTox_CID>
132

>  <DSSTox_Generic_SID>
20132

>  <DSSTox_FileID>
9_ARYEXP_Aux_v2a

>  <STRUCTURE_Formula>
C15H17N5O

>  <STRUCTURE_MolecularWeight>
283.3284

>  <STRUCTURE_ChemicalType>
defined organic

>  <STRUCTURE_TestedForm_DefinedOrganic>
parent

>  <STRUCTURE_Shown>
tested chemical

>  <TestSubstance_ChemicalName>
Bemitradine

>  <Source_ChemicalName>
Bemitradine

>  <TestSubstance_CASRN>
88133-11-3

>  <TestSubstance_Description>
single chemical compound

>  <STRUCTURE_ChemicalName_IUPAC>
8-[2-(ethyloxy)ethyl]-7-phenyl[1,2,4]triazolo[1,5-c]pyrimidin-5-amine

>  <STRUCTURE_SMILES>
NC2=NC(C3=CC=CC=C3)=C(CCOCC)C1=NC=NN12

>  <STRUCTURE_Parent_SMILES>
NC2=NC(C3=CC=CC=C3)=C(CCOCC)C1=NC=NN12

>  <STRUCTURE_InChI>
InChI=1S/C15H17N5O/c1-2-21-9-8-12-13(11-6-4-3-5-7-11)19-15(16)20-14(12)17-10-18-20/h3-7,10H,2,8-9H2,1H3,(H2,16,19)

>  <STRUCTURE_InChIKey>
OZSPQIXKOVJJGE-UHFFFAOYSA-N

>  <Substance_modify_yyyymmdd>
20080429

>  <StudyType>
microarray

>  <Chemical_StudyType>
Treatment

>  <Experiment_Accession>
E-MEXP-89

>  <Experiment_URL>
http://www.ebi.ac.uk/arrayexpress/experiments/E-MEXP-89

>  <Experiment_IdNumber>
293613099

>  <Experiment_Title>
Transcription profiling identification of rodent hepatic carcinogenesis"

>  <Experiment_Description>
3 dose levels of each of 9 compounds were used to dose male SD rats q.d. by oral gavage.  Compounds included 5 nongenotoxic carcinogens (bemitradine, clofibrate, doxylamine, methapyrilene, &amp; phenobarbital), 2 genotoxic agents (tamoxifen and 2-AAF) and 2 non-carcinogens (4-AAF and isoniazid).  This work has been described in Kramer JA, Curtiss SW, Kolaja KL, Alden CA, Blomme EAG, Curtiss WC, Davila JC, Jackson CJ, and Bunch RT. (2004)  Acute Molecular Markers of Rodent Hepatic Carcinogenesis Identified by Transcription Profiling.  Chem. Res. Toxicol., in press. , (Generated description) Experiment with 105 hybridizations, using 80 samples of species [Rattus norvegicus], using 105 arrays of array design [Incyte RatGEM 1.01], producing 105 raw data files and 0 transformed and/or normalized data files.

>  <Experiment_PubMed_Information>
accession=15089088 authors=Kramer JA, Curtiss SW, Kolaja KL, Alden CA, Blomme EAG, Curtiss WC, Davila JC, Jackson CJ, and Bunch RT issue=4 pages=463-70 publication=Chem Res Toxicol title=Acute molecular markers of rodent hepatic carcinogenesis identified by transcription profiling volume=17 year=2004

>  <Experiment_PublicationDate>
38043

>  <Species>
Rattus norvegicus

>  <Number_Samples>
80

>  <Experiment_ArrayAccession>
A-MEXP-22,A-MEXP-22

>  <Experiment_ArrayType>
Incyte RatGEM 1.01

>  <Experiment_ArrayTitle>
Incyte RatGEM 1.01,Incyte RatGEM 1.01

>  <Experiment_DesignFile_PNG>
download/mageml/E-MEXP-89.biosamples.png

>  <Experiment_DesignFile_SVG>
download/mageml/E-MEXP-89.biosamples.svg

>  <Number_CelFiles_Affymetrix>
0

>  <Link_ProcessedData>




>  <Number_ProcessedDataFiles>




>  <Number_Hybridizations>
105

>  <Link_RawData>
download/mageml/E-MEXP-89.raw.zip"

>  <Number_RawDataFiles>
105

>  <Link_SampleDataRelationshipFile>
download/mageml/E-MEXP-89.sdrf.txt

>  <Link_TwoColumnData>
download/mageml/E-MEXP-89.2columns.txt

>  <Experiment_SampleAttributes>
Age:6 To 7, BioSourceType:frozen_sample, DevelopmentalStage:adult, Individual:1102, Individual:1401, Individual:1403, Individual:1502, Individual:1601, Individual:1603, Individual:1903, Individual:1902, Individual:1901, Individual:1803, Individual:1802, Individual:1801, Individual:1703, Individual:1702, Individual:1701, Individual:5203, Individual:5202, Individual:5201, Individual:5103, Individual:5102, Individual:5101, Individual:4AAFMidPool, Individual:4AAFLowPool, Individual:4AAFHighPool, Individual:7002, Individual:7001, Individual:5903, Individual:5902, Individual:5901, Individual:5603, Individual:5602, Individual:5601, Individual:5503, Individual:CtrlPool, Individual:CloMidPool, Individual:CloLowPool, Individual:CloHighPool, Individual:BemMidPool, Individual:BemLowPool, Individual:BemHighPool, Individual:7503, Individual:7502, TimeUnit:weeks, Sex:male, OrganismPart:liver, Organism:Rattus norvegicus, Individual:TamLowPool, Individual:TamHighPool, Individual:PBMidPool, Individual:PBLowPool, Individual:PBHighPool, Individual:MPMidPool, Individual:MPLowPool, Individual:DoxHighPool, Individual:7501, Individual:7203, Individual:7202, Individual:7201, Individual:7103, Individual:7102, Individual:7101, Individual:7003, Individual:5502, Individual:5501, Individual:5403, Individual:5402, Individual:5401, Individual:5303, Individual:5302, Individual:5301, Individual:3303, Individual:3302, Individual:3301, Individual:3002, Individual:3001, Individual:2AAFMidPool, Individual:2AAFLowPool, Individual:2AAFHighPool, Individual:1602, Individual:1503, Individual:1501, Individual:1402, Individual:1103, Individual:1101

>  <Experiment_Factors>
compound, dose

>  <MIAME_Total>
1

>  <MIAME_ArrayDesign_Score>
0

>  <MIAME_Factors_Score>
0

>  <MIAME_RawData_Score>
1

>  <MIAME_Protocol_Score>
0

>  <MIAME_ProcessedData_Score>
0

>  <Experiment_ArrayCount>
105105

>  <Experiment_ArrayId>
124516633;124516633

>  <Experiment_BioassayAccessionCode>
MEXP

>  <Experiment_BioassayCount>
105

>  <Experiment_BioassayDataFormat>
tab delimited

>  <Experiment_BioassayId>
1341944760

>  <Number_BioassayDerived>
0

>  <Experiment_BioassayTitle>
DED:MEXP:464

>  <Number_BadCubes>
105

>  <Experiment_Submitter>
contact=Jeffrey Kramer email=jeffrey.a.kramer@pharmacia.com role=submitter

>  <Experiment_DesignType>
dose response, compound treatment

>  <Experiment_DescriptionId>
293613100, 1341958216

$$$$



 16 16  0  0  0  0  0  0  0  0999 V2000
    4.6068   -5.3201    0.0000 C   0  0  0  0  0  0  0  0  0  0  0  0
    4.6068   -3.9880    0.0000 C   0  0  0  0  0  0  0  0  0  0  0  0
    4.6068   -2.6644    0.0000 O   0  0  0  0  0  0  0  0  0  0  0  0
    3.4551   -1.9940    0.0000 C   0  0  0  0  0  0  0  0  0  0  0  0
    2.3034   -2.6644    0.0000 C   0  0  0  0  0  0  0  0  0  0  0  0
    1.1517   -1.9940    0.0000 C   0  0  0  0  0  0  0  0  0  0  0  0
    1.1517   -0.6704    0.0000 C   0  0  0  0  0  0  0  0  0  0  0  0
    2.3034    0.0000    0.0000 C   0  0  0  0  0  0  0  0  0  0  0  0
    3.4551   -0.6704    0.0000 C   0  0  0  0  0  0  0  0  0  0  0  0
    0.0000    0.0000    0.0000 Cl  0  0  0  0  0  0  0  0  0  0  0  0
    5.9390   -3.9880    0.0000 C   0  0  0  0  0  0  0  0  0  0  0  0
    6.6008   -5.1397    0.0000 O   0  0  0  0  0  0  0  0  0  0  0  0
    6.6008   -2.8363    0.0000 O   0  0  0  0  0  0  0  0  0  0  0  0
    7.9329   -2.8363    0.0000 C   0  0  0  0  0  0  0  0  0  0  0  0
    8.5947   -1.6846    0.0000 C   0  0  0  0  0  0  0  0  0  0  0  0
    3.2746   -3.9880    0.0000 C   0  0  0  0  0  0  0  0  0  0  0  0
  1  2  1  0  0  0  0
  2  3  1  0  0  0  0
  2 11  1  0  0  0  0
  2 16  1  0  0  0  0
  3  4  1  0  0  0  0
  4  5  2  0  0  0  0
  4  9  1  0  0  0  0
  5  6  1  0  0  0  0
  6  7  2  0  0  0  0
  7  8  1  0  0  0  0
  7 10  1  0  0  0  0
  8  9  2  0  0  0  0
 11 12  2  0  0  0  0
 11 13  1  0  0  0  0
 13 14  1  0  0  0  0
 14 15  1  0  0  0  0
M  END
>  <DSSTox_RID>
42977

>  <DSSTox_CID>
336

>  <DSSTox_Generic_SID>
20336

>  <DSSTox_FileID>
10_ARYEXP_Aux_v2a

>  <STRUCTURE_Formula>
C12H15ClO3

>  <STRUCTURE_MolecularWeight>
242.6987

>  <STRUCTURE_ChemicalType>
defined organic

>  <STRUCTURE_TestedForm_DefinedOrganic>
parent

>  <STRUCTURE_Shown>
tested chemical

>  <TestSubstance_ChemicalName>
Clofibrate

>  <Source_ChemicalName>
Clofibrate

>  <TestSubstance_CASRN>
637-07-0

>  <TestSubstance_Description>
single chemical compound

>  <STRUCTURE_ChemicalName_IUPAC>
ethyl 2-[(4-chlorophenyl)oxy]-2-methylpropanoate

>  <STRUCTURE_SMILES>
CC(OC1=CC=C(C=C1)Cl)(C(=O)OCC)C

>  <STRUCTURE_Parent_SMILES>
CC(OC1=CC=C(C=C1)Cl)(C(=O)OCC)C

>  <STRUCTURE_InChI>
InChI=1S/C12H15ClO3/c1-4-15-11(14)12(2,3)16-10-7-5-9(13)6-8-10/h5-8H,4H2,1-3H3

>  <STRUCTURE_InChIKey>
KNHUKKLJHYUCFP-UHFFFAOYSA-N

>  <Substance_modify_yyyymmdd>
20080429

>  <StudyType>
microarray

>  <Chemical_StudyType>
Treatment

>  <Experiment_Accession>
E-MEXP-89

>  <Experiment_URL>
http://www.ebi.ac.uk/arrayexpress/experiments/E-MEXP-89

>  <Experiment_IdNumber>
293613099

>  <Experiment_Title>
Transcription profiling identification of rodent hepatic carcinogenesis"

>  <Experiment_Description>
3 dose levels of each of 9 compounds were used to dose male SD rats q.d. by oral gavage.  Compounds included 5 nongenotoxic carcinogens (bemitradine, clofibrate, doxylamine, methapyrilene, &amp; phenobarbital), 2 genotoxic agents (tamoxifen and 2-AAF) and 2 non-carcinogens (4-AAF and isoniazid).  This work has been described in Kramer JA, Curtiss SW, Kolaja KL, Alden CA, Blomme EAG, Curtiss WC, Davila JC, Jackson CJ, and Bunch RT. (2004)  Acute Molecular Markers of Rodent Hepatic Carcinogenesis Identified by Transcription Profiling.  Chem. Res. Toxicol., in press. , (Generated description) Experiment with 105 hybridizations, using 80 samples of species [Rattus norvegicus], using 105 arrays of array design [Incyte RatGEM 1.01], producing 105 raw data files and 0 transformed and/or normalized data files.

>  <Experiment_PubMed_Information>
accession=15089088 authors=Kramer JA, Curtiss SW, Kolaja KL, Alden CA, Blomme EAG, Curtiss WC, Davila JC, Jackson CJ, and Bunch RT issue=4 pages=463-70 publication=Chem Res Toxicol title=Acute molecular markers of rodent hepatic carcinogenesis identified by transcription profiling volume=17 year=2004

>  <Experiment_PublicationDate>
38043

>  <Species>
Rattus norvegicus

>  <Number_Samples>
80

>  <Experiment_ArrayAccession>
A-MEXP-22,A-MEXP-22

>  <Experiment_ArrayType>
Incyte RatGEM 1.01

>  <Experiment_ArrayTitle>
Incyte RatGEM 1.01,Incyte RatGEM 1.01

>  <Experiment_DesignFile_PNG>
download/mageml/E-MEXP-89.biosamples.png

>  <Experiment_DesignFile_SVG>
download/mageml/E-MEXP-89.biosamples.svg

>  <Number_CelFiles_Affymetrix>
0

>  <Link_ProcessedData>




>  <Number_ProcessedDataFiles>




>  <Number_Hybridizations>
105

>  <Link_RawData>
download/mageml/E-MEXP-89.raw.zip"

>  <Number_RawDataFiles>
105

>  <Link_SampleDataRelationshipFile>
download/mageml/E-MEXP-89.sdrf.txt

>  <Link_TwoColumnData>
download/mageml/E-MEXP-89.2columns.txt

>  <Experiment_SampleAttributes>
Age:6 To 7, BioSourceType:frozen_sample, DevelopmentalStage:adult, Individual:1102, Individual:1401, Individual:1403, Individual:1502, Individual:1601, Individual:1603, Individual:1903, Individual:1902, Individual:1901, Individual:1803, Individual:1802, Individual:1801, Individual:1703, Individual:1702, Individual:1701, Individual:5203, Individual:5202, Individual:5201, Individual:5103, Individual:5102, Individual:5101, Individual:4AAFMidPool, Individual:4AAFLowPool, Individual:4AAFHighPool, Individual:7002, Individual:7001, Individual:5903, Individual:5902, Individual:5901, Individual:5603, Individual:5602, Individual:5601, Individual:5503, Individual:CtrlPool, Individual:CloMidPool, Individual:CloLowPool, Individual:CloHighPool, Individual:BemMidPool, Individual:BemLowPool, Individual:BemHighPool, Individual:7503, Individual:7502, TimeUnit:weeks, Sex:male, OrganismPart:liver, Organism:Rattus norvegicus, Individual:TamLowPool, Individual:TamHighPool, Individual:PBMidPool, Individual:PBLowPool, Individual:PBHighPool, Individual:MPMidPool, Individual:MPLowPool, Individual:DoxHighPool, Individual:7501, Individual:7203, Individual:7202, Individual:7201, Individual:7103, Individual:7102, Individual:7101, Individual:7003, Individual:5502, Individual:5501, Individual:5403, Individual:5402, Individual:5401, Individual:5303, Individual:5302, Individual:5301, Individual:3303, Individual:3302, Individual:3301, Individual:3002, Individual:3001, Individual:2AAFMidPool, Individual:2AAFLowPool, Individual:2AAFHighPool, Individual:1602, Individual:1503, Individual:1501, Individual:1402, Individual:1103, Individual:1101

>  <Experiment_Factors>
compound, dose

>  <MIAME_Total>
1

>  <MIAME_ArrayDesign_Score>
0

>  <MIAME_Factors_Score>
0

>  <MIAME_RawData_Score>
1

>  <MIAME_Protocol_Score>
0

>  <MIAME_ProcessedData_Score>
0

>  <Experiment_ArrayCount>
105105

>  <Experiment_ArrayId>
124516633;124516633

>  <Experiment_BioassayAccessionCode>
MEXP

>  <Experiment_BioassayCount>
105

>  <Experiment_BioassayDataFormat>
tab delimited

>  <Experiment_BioassayId>
1341944760

>  <Number_BioassayDerived>
0

>  <Experiment_BioassayTitle>
DED:MEXP:464

>  <Number_BadCubes>
105

>  <Experiment_Submitter>
contact=Jeffrey Kramer email=jeffrey.a.kramer@pharmacia.com role=submitter

>  <Experiment_DesignType>
dose response, compound treatment

>  <Experiment_DescriptionId>
293613100, 1341958216

$$$$

